8
New structure
Li    3.36000000000E-01 -3.36000000000E-01  0.00000000000E+00
Li   -3.36000000000E-01  3.36000000000E-01  0.00000000000E+00
Li   -1.64000000000E-01 -1.64000000000E-01 -5.00000000000E-01
Li    1.64000000000E-01  1.64000000000E-01 -5.00000000000E-01
 F     3.10000000000E-01  3.10000000000E-01  0.00000000000E+00
 F    -3.10000000000E-01 -3.10000000000E-01  0.00000000000E+00
 F    -1.90000000000E-01  1.90000000000E-01 -5.00000000000E-01
 F     1.90000000000E-01 -1.90000000000E-01 -5.00000000000E-01